- Hello?
- Oh, hi, is that Bob?
- Yeah, who's this?
- It's Dan.
- Oh, hi Dan. Did you get my email?
- Yup, I've got the program for you. But the problem is our network's dead.
- You're kidding?
- Nope.
- But I need that listing now...
- Sure thing, let me read it out to you.
- Erm, okay then...
- Got a pen?
- Hang on... Yep, go for it.
- Right, here goes...

- hash symbol, exclamation mark forward slash usr forward slash bin slash
- What kind of slash?
- A forward slash.
- Right, remember to tell me which one.
- Oh yeah. env space python and a new line.
- Got it.
- pound symbol, space encoding colon space utf minus eight then a new line.
- Hang on, was that heyse?
- Nope, that was space.
- Alright.
- double quote quote
- What kind of quote?
- A double quote, quote
- What kind of quote?
- A double quote, then a new line.
- You what?
- It was: double quote quote
- What kind of quote?
- A double quote, quote
- What kind of quote?
- A double quote, then a new line.
- Come again?
- That was: double quote quote
- What kind of quote?
- A double quote, quote
- What kind of quote?
- A double quote, then a new line.
- Keep going.
- Phone with big P space It with upper case I space In dot with big I and then a
  new line.
- Sorry, what?
- I said: Phone with big P space It with upper case I space In dot with big I
  and then a new line.
- Was that wace?
- Nah, I said space.
- Was that glace?
- Nah, that was space.
- Carry on.
- An with big A space entry space for space National with big N space Novel with
  upper case N space Generation with capital G space Month with upper case M
  space starting round bracket, NaNoGenMo close parenthesis, with upper case N,
  N, G and M, space two oh one five dot and then a new line.
- Mhmm.
- The with capital T space plot colon space someone space needs space a space
  computer space program space but space the space network single quote s space
  down comma then a new line.
- Say that again.
- The with capital T space plot colon space someone space needs space a space
  computer space program space but space the space network single quote s space
  down comma then a new line.
- Keep going.
- So space a space second space person space has space to space tediously space
  read space it space out space over space the space telephone fullstop and then
  a new line.
- Sorry, missed that bit.
- It went: So space a space second space person space has space to space
  tediously space read space it space out space over space the space telephone
  fullstop and then a new line.
- Carry on.
- Hilarity with capital H space ensues fullstop and then a new line.
- Say that again.
- Hilarity with capital H space ensues fullstop and then a new line.
- Can you repeat that?
- I said: Hilarity with capital H space ensues fullstop and then a new line.
- Keep going.
- quote
- What kind of quote?
- Double, quote
- What kind of quote?
- A double quote.
- Right, remember to tell me which one.
- Right, yeah, sorry. double quote then a new line.
- Yes.
- From space underscore underscore future underscore underscore space import
  space print underscore function comma space unicode underscore literals and
  then a new line.
- Can you repeat that?
- It went: From space underscore underscore future underscore underscore space
  import space print underscore function comma space unicode underscore literals
  and then a new line.
- Sorry, what?
- It went: From space underscore underscore future underscore underscore space
  import space print underscore function comma space unicode underscore literals
  and then a new line.
- Yup.
- Import space argparse then new line.
- Sorry, what?
- It was: Import space argparse then new line.
- Sorry, missed that bit.
- It was: Import space argparse then new line.
- Uh, what?
- I said: Import space argparse then new line.
- Er, did you just say qu?
- Nah, I said new.
- Uh, what?
- It went: Import space argparse then new line.
- Carry on.
- Import space inflect space space hashtag, space pip space install space
  inflect then new line.
- Yup.
- Import space pronouncing space space hash, space pip space install space
  pronouncing and a new line.
- Sorry, what?
- I said: Import space pronouncing space space hash, space pip space install
  space pronouncing and a new line.
- Say that again.
- It went: Import space pronouncing space space hash, space pip space install
  space pronouncing and a new line.
- Uh, what?
- I said: Import space pronouncing space space hash, space pip space install
  space pronouncing and a new line.
- Can you repeat that?
- I said: Import space pronouncing space space hash, space pip space install
  space pronouncing and a new line.
- Yes.
- From space random space import space choice comma space random and a new line.
- Uh, what?
- It went: From space random space import space choice comma space random and a
  new line.
- Carry on.
- Import space re and a new line.
- Come again?
- It was: Import space re and a new line.
- Did you say bray?
- Nope, I said re.
- Carry on.
- then a new line.
- Uh, what?
- That was: then a new line.
- Sorry, missed that bit.
- I said: then a new line.
- Yup.
- hash symbol, space from space pprint space import space pprint and a new line.
- Er, did you just say numb?
- No, that was from.
- Alright.
- then new line.
- Uh, what?
- I said: then new line.
- Carry on.
- and then a new line.
- Sorry, what?
- It was: and then a new line.
- Repeat that.
- It went: and then a new line.
- Sorry, what?
- I said: and then a new line.
- Yes.
- Def space print underscore it opening round bracket, text close parenthesis,
  colon then a new line.
- Did you say reopening?
- No, it was opening.
- Can you repeat that?
- It went: Def space print underscore it opening round bracket, text close
  parenthesis, colon then a new line.
- Sorry, what?
- It was: Def space print underscore it opening round bracket, text close
  parenthesis, colon then a new line.
- Alright.
- OK so it begins with four spaces.
- Hang on, was that door?
- Nah, it was four.
- Keep going.
- quote
- What kind of quote?
- A double quote.
- Right, remember to tell me which one.
- Right, yeah, sorry. double quote quote
- What kind of quote?
- Double quote, space Windows with upper case W space cmd period exe space
  cannot space do space Unicode with upper case U space so space encode space
  first space double quote quote
- What kind of quote?
- Double quote, quote
- What kind of quote?
- Double quote, then new line.
- Uh, what?
- quote
- What kind of quote?
- A double quote.
- Right, remember to tell me which one.
- Right, yeah, sorry. double quote quote
- What kind of quote?
- Double quote, space Windows with upper case W space cmd period exe space
  cannot space do space Unicode with upper case U space so space encode space
  first space double quote quote
- What kind of quote?
- Double quote, quote
- What kind of quote?
- Double quote, then new line.
- Uh, what?
- quote
- What kind of quote?
- A double quote.
- Right, remember to tell me which one.
- Right, yeah, sorry. double quote quote
- What kind of quote?
- Double quote, space Windows with upper case W space cmd period exe space
  cannot space do space Unicode with upper case U space so space encode space
  first space double quote quote
- What kind of quote?
- Double quote, quote
- What kind of quote?
- Double quote, then new line.
- Repeat that.
- It was: quote
- What kind of quote?
- A double quote.
- Right, remember to tell me which one.
- Right, yeah, sorry. double quote quote
- What kind of quote?
- Double quote, space Windows with upper case W space cmd period exe space
  cannot space do space Unicode with upper case U space so space encode space
  first space double quote quote
- What kind of quote?
- Double quote, quote
- What kind of quote?
- Double quote, then new line.
- Alright.
- hash symbol, space space space space space print open parenthesis, text
  fullstop encode opening parenthesis, quote
- What kind of quote?
- Single, utf minus eight single quote end round bracket, ending round bracket,
  then a new line.
- Yes.
- four spaces.
- Sorry, missed that bit.
- four spaces.
- Carry on.
- Print starting round bracket, text ending round bracket, and a new line.
- Hang on, was that astound?
- Nah, I said round.
- Yes.
- and a new line.
- Repeat that.
- It was: and a new line.
- Carry on.
- and a new line.
- You what?
- That was: and a new line.
- Was that thew?
- Nah, I said new.
- Aha.
- Def space percent underscore chance starting round bracket, percent close
  parenthesis, colon then new line.
- Sorry, what?
- It was: Def space percent underscore chance starting round bracket, percent
  close parenthesis, colon then new line.
- Hang on, was that pou?
- No, I said new.
- Keep going.
- Then four spaces.
- Can you repeat that?
- I said: Then four spaces.
- Aha.
- Return space random opening round bracket, close round bracket, space less
  than space percent space slash
- What kind of slash?
- Forward space one oh zero period zero then a new line.
- Sorry, missed that bit.
- It went: Return space random opening round bracket, close round bracket, space
  less than space percent space slash
- What kind of slash?
- Forward space one oh zero period zero then a new line.
- Er, did you just say heyse?
- No, I said space.
- Sorry, what?
- It went: Return space random opening round bracket, close round bracket, space
  less than space percent space slash
- What kind of slash?
- Forward space one oh zero period zero then a new line.
- Sorry, missed that bit.
- That was: Return space random opening round bracket, close round bracket,
  space less than space percent space slash
- What kind of slash?
- Forward space one oh zero period zero then a new line.
- Can you repeat that?
- It went: Return space random opening round bracket, close round bracket, space
  less than space percent space slash
- What kind of slash?
- Forward space one oh zero period zero then a new line.
- Keep going.
- and a new line.
- Er, did you just say thickened?
- Nah, it was and.
- Sorry, missed that bit.
- and a new line.
- Repeat that.
- I said: and a new line.
- Can you repeat that?
- That was: and a new line.
- Got it.
- then new line.
- Uh, what?
- It was: then new line.
- Carry on.
- Def space load underscore file starting round bracket, the underscore filename
  ending parenthesis, colon then a new line.
- Say that again.
- Def space load underscore file starting round bracket, the underscore filename
  ending parenthesis, colon then a new line.
- Er, did you just say suh?
- No, it was the.
- Uh, what?
- Def space load underscore file starting round bracket, the underscore filename
  ending parenthesis, colon then a new line.
- Carry on.
- The next line begins with four spaces.
- You what?
- I said: The next line begins with four spaces.
- Did you say vanduyne?
- No, it was line.
- Hang on, was that intertwine?
- No, I said line.
- Yup.
- Try colon then new line.
- Sorry, what?
- I said: Try colon then new line.
- Hang on, was that (left-paren?
- No, I said then.
- Uh, what?
- It went: Try colon then new line.
- Repeat that.
- It was: Try colon then new line.
- Come again?
- Try colon then new line.
- Keep going.
- So we've got eight spaces at the start.
- Hang on, was that katt?
- Nope, I said at.
- Mhmm.
- With space open opening parenthesis, the underscore filename comma space quote
- What kind of quote?
- Single, r single quote end parenthesis, space as space f colon then a new
  line.
- Was that embrace?
- Nah, that was space.
- Yes.
- twelve spaces.
- Can you repeat that?
- I said: twelve spaces.
- Got it.
- Lines space equals space starting curly bracket, then new line.
- Sorry, missed that bit.
- I said: Lines space equals space starting curly bracket, then new line.
- Can you repeat that?
- It went: Lines space equals space starting curly bracket, then new line.
- Aha.
- OK so it begins with sixteen spaces.
- You what?
- It was: OK so it begins with sixteen spaces.
- Hang on, was that finn's?
- Nah, I said begins.
- Mhmm.
- Line fullstop decode open round bracket, quote
- What kind of quote?
- Single, utf dash eight single quote end parenthesis, space for space line
  space in space f closing curly bracket, and a new line.
- Yup.
- The next line begins with four spaces.
- Come again?
- It went: The next line begins with four spaces.
- Come again?
- The next line begins with four spaces.
- Yup.
- Except space IOError colon with capital I, O and E, and then a new line.
- Uh, what?
- I said: Except space IOError colon with capital I, O and E, and then a new
  line.
- Carry on.
- eight spaces.
- Sorry, what?
- I said: eight spaces.
- Alright.
- Lines space equals sign space opening curly bracket, ending curly bracket,
  then new line.
- Did you say thine?
- Nah, it was sign.
- Yes.
- Then four spaces.
- Carry on.
- Return space lines and then a new line.
- You what?
- That was: Return space lines and then a new line.
- Er, did you just say chace?
- No, I said space.
- Got it.
- and then a new line.
- Can you repeat that?
- and then a new line.
- Got it.
- then a new line.
- Carry on.
- Def space start underscore call starting round bracket, close parenthesis,
  colon then a new line.
- Repeat that.
- Def space start underscore call starting round bracket, close parenthesis,
  colon then a new line.
- Got it.
- OK so it begins with four spaces.
- Can you repeat that?
- That was: OK so it begins with four spaces.
- Yup.
- Print opening round bracket, quote
- What kind of quote?
- A double quote, double quote quote
- What kind of quote?
- A double quote.
- Right, remember to tell me which one.
- Right, yeah, sorry. hyphen space Hello question mark, with upper case H and a
  new line.
- Uh, what?
- It was: Print opening round bracket, quote
- What kind of quote?
- A double quote, double quote quote
- What kind of quote?
- A double quote.
- Right, remember to tell me which one.
- Right, yeah, sorry. hyphen space Hello question mark, with upper case H and a
  new line.
- Aha.
- minus space Oh comma with big O space hi comma space is space that space Bob
  question mark, with big B then new line.
- Sorry, missed that bit.
- It was: minus space Oh comma with big O space hi comma space is space that
  space Bob question mark, with big B then new line.
- Yup.
- minus space Yeah comma with upper case Y space who quote
- What kind of quote?
- Single quote, s space this question mark, then new line.
- Can you repeat that?
- It went: minus space Yeah comma with upper case Y space who quote
- What kind of quote?
- Single quote, s space this question mark, then new line.
- Say that again.
- It went: minus space Yeah comma with upper case Y space who quote
- What kind of quote?
- Single quote, s space this question mark, then new line.
- Carry on.
- hyphen space It quote
- What kind of quote?
- A single quote, s with capital I space Dan dot with upper case D and a new
  line.
- Sorry, what?
- It went: hyphen space It quote
- What kind of quote?
- A single quote, s with capital I space Dan dot with upper case D and a new
  line.
- Repeat that.
- hyphen space It quote
- What kind of quote?
- A single quote, s with capital I space Dan dot with upper case D and a new
  line.
- Did you say clott?
- No, that was dot.
- Got it.
- hyphen space Oh comma with big O space hi space Dan fullstop with upper case D
  space Did with capital D space you space get space my space email question
  mark, then a new line.
- Repeat that.
- I said: hyphen space Oh comma with big O space hi space Dan fullstop with
  upper case D space Did with capital D space you space get space my space email
  question mark, then a new line.
- Yup.
- dash space Yup comma with upper case Y space I quote
- What kind of quote?
- A single quote.
- OK, please remember what kind, we've gone through this.
- Yeah, sorry. ve with upper case I space got space the space program space for
  space you period space But with big B space the space problem space is space
  our space network quote
- What kind of quote?
- Single, s space dead fullstop and then a new line.
- Er, did you just say erases?
- Nope, it was is.
- Say that again.
- dash space Yup comma with upper case Y space I quote
- What kind of quote?
- A single quote.
- OK, please remember what kind, we've gone through this.
- Yeah, sorry. ve with upper case I space got space the space program space for
  space you period space But with big B space the space problem space is space
  our space network quote
- What kind of quote?
- Single, s space dead fullstop and then a new line.
- Can you repeat that?
- dash space Yup comma with upper case Y space I quote
- What kind of quote?
- A single quote.
- OK, please remember what kind, we've gone through this.
- Yeah, sorry. ve with upper case I space got space the space program space for
  space you period space But with big B space the space problem space is space
  our space network quote
- What kind of quote?
- Single, s space dead fullstop and then a new line.
- Come again?
- That was: dash space Yup comma with upper case Y space I quote
- What kind of quote?
- A single quote.
- OK, please remember what kind, we've gone through this.
- Yeah, sorry. ve with upper case I space got space the space program space for
  space you period space But with big B space the space problem space is space
  our space network quote
- What kind of quote?
- Single, s space dead fullstop and then a new line.
- Er, did you just say ten?
- No, it was then.
- Can you repeat that?
- dash space Yup comma with upper case Y space I quote
- What kind of quote?
- A single quote.
- OK, please remember what kind, we've gone through this.
- Yeah, sorry. ve with upper case I space got space the space program space for
  space you period space But with big B space the space problem space is space
  our space network quote
- What kind of quote?
- Single, s space dead fullstop and then a new line.
- Can you repeat that?
- dash space Yup comma with upper case Y space I quote
- What kind of quote?
- A single quote.
- OK, please remember what kind, we've gone through this.
- Yeah, sorry. ve with upper case I space got space the space program space for
  space you period space But with big B space the space problem space is space
  our space network quote
- What kind of quote?
- Single, s space dead fullstop and then a new line.
- Got it.
- minus space You quote
- What kind of quote?
- A single quote, re with big Y space kidding question mark, then a new line.
- Hang on, was that frace?
- Nah, it was space.
- Carry on.
- minus space Nope dot with capital N then a new line.
- Say that again.
- It went: minus space Nope dot with capital N then a new line.
- You what?
- I said: minus space Nope dot with capital N then a new line.
- Hang on, was that kehn?
- Nah, that was then.
- Repeat that.
- It went: minus space Nope dot with capital N then a new line.
- Sorry, what?
- It was: minus space Nope dot with capital N then a new line.
- Keep going.
- dash space But with capital B space i all capitals space need space that space
  listing space now period period fullstop and then a new line.
- Did you say capital's?
- No, it was capitals.
- Was that jaquith?
- Nah, that was with.
- Was that displace?
- Nope, I said space.
- Got it.
- hyphen space Sure with upper case S space thing comma space let space me space
  read space it space out space to space you period then new line.
- Repeat that.
- That was: hyphen space Sure with upper case S space thing comma space let
  space me space read space it space out space to space you period then new
  line.
- Aha.
- minus space Erm comma with big E space okay space then period fullstop dot
  then new line.
- Carry on.
- dash space Got with big G space a space pen question mark, and a new line.
- You what?
- dash space Got with big G space a space pen question mark, and a new line.
- Come again?
- It went: dash space Got with big G space a space pen question mark, and a new
  line.
- Keep going.
- dash space Hang with upper case H space on fullstop period period space Yep
  comma with capital Y space go space for space it dot and a new line.
- Sorry, missed that bit.
- That was: dash space Hang with upper case H space on fullstop period period
  space Yep comma with capital Y space go space for space it dot and a new line.
- Er, did you just say smith?
- No, that was with.
- Sorry, what?
- It was: dash space Hang with upper case H space on fullstop period period
  space Yep comma with capital Y space go space for space it dot and a new line.
- Keep going.
- hyphen space Right comma with upper case R space here space goes dot dot
  period then new line.
- Say that again.
- It went: hyphen space Right comma with upper case R space here space goes dot
  dot period then new line.
- Sorry, what?
- It went: hyphen space Right comma with upper case R space here space goes dot
  dot period then new line.
- Yes.
- double quote quote
- What kind of quote?
- A double quote.
- Right, remember to tell me which one.
- Right, yeah, sorry. quote
- What kind of quote?
- A double quote.
- Right, remember to tell me which one.
- Right, yeah, sorry. close parenthesis, then new line.
- Uh, what?
- double quote quote
- What kind of quote?
- A double quote.
- Right, remember to tell me which one.
- Right, yeah, sorry. quote
- What kind of quote?
- A double quote.
- Right, remember to tell me which one.
- Right, yeah, sorry. close parenthesis, then new line.
- Aha.
- and then a new line.
- Er, did you just say richland?
- No, that was and.
- Aha.
- then new line.
- Er, did you just say benne?
- Nah, that was then.
- Carry on.
- Def space end underscore call open round bracket, end round bracket, colon
  then new line.
- Mhmm.
- The next line begins with four spaces.
- Can you repeat that?
- I said: The next line begins with four spaces.
- Mhmm.
- Print open parenthesis, quote
- What kind of quote?
- Double quote, quote
- What kind of quote?
- Double, double quote dash space ok comma all capitals space that quote
- What kind of quote?
- Single, s space the space end dot and then a new line.
- Say that again.
- It was: Print open parenthesis, quote
- What kind of quote?
- Double quote, quote
- What kind of quote?
- Double, double quote dash space ok comma all capitals space that quote
- What kind of quote?
- Single, s space the space end dot and then a new line.
- Sorry, what?
- Print open parenthesis, quote
- What kind of quote?
- Double quote, quote
- What kind of quote?
- Double, double quote dash space ok comma all capitals space that quote
- What kind of quote?
- Single, s space the space end dot and then a new line.
- Did you say yokohama?
- Nah, I said comma.
- Say that again.
- It was: Print open parenthesis, quote
- What kind of quote?
- Double quote, quote
- What kind of quote?
- Double, double quote dash space ok comma all capitals space that quote
- What kind of quote?
- Single, s space the space end dot and then a new line.
- Got it.
- hyphen space That single quote s with big T space it question mark, then a new
  line.
- Sorry, missed that bit.
- It was: hyphen space That single quote s with big T space it question mark,
  then a new line.
- You what?
- That was: hyphen space That single quote s with big T space it question mark,
  then a new line.
- Er, did you just say salmen?
- Nah, it was then.
- Carry on.
- minus space Yup period with big Y then a new line.
- You what?
- It was: minus space Yup period with big Y then a new line.
- Sorry, what?
- That was: minus space Yup period with big Y then a new line.
- Sorry, missed that bit.
- I said: minus space Yup period with big Y then a new line.
- Sorry, missed that bit.
- minus space Yup period with big Y then a new line.
- Was that myriad?
- Nope, I said period.
- Sorry, what?
- It went: minus space Yup period with big Y then a new line.
- Yup.
- hyphen space All with upper case A space of space it question mark, then a new
  line.
- Say that again.
- It was: hyphen space All with upper case A space of space it question mark,
  then a new line.
- Carry on.
- hyphen space Yes fullstop with big Y then a new line.
- You what?
- It went: hyphen space Yes fullstop with big Y then a new line.
- Aha.
- minus space Phew comma with capital P space what space a space relief
  exclamation mark space I single quote m with big I space not space going space
  to space do space that space again exclamation mark then a new line.
- Sorry, missed that bit.
- That was: minus space Phew comma with capital P space what space a space
  relief exclamation mark space I single quote m with big I space not space
  going space to space do space that space again exclamation mark then a new
  line.
- Got it.
- minus space Yeah comma with big Y space me space neither dot then new line.
- Was that displace?
- Nah, it was space.
- Mhmm.
- dash space Alright comma with big A space thanks space again comma space see
  space you space later space Dan dot with upper case D then new line.
- Say that again.
- dash space Alright comma with big A space thanks space again comma space see
  space you space later space Dan dot with upper case D then new line.
- Yup.
- minus space Cheers with big C space Bob comma with big B space bye space then
  exclamation mark then new line.
- Alright.
- minus space But with capital B space then i all in caps space might space call
  space you space back space if space it space doesn quote
- What kind of quote?
- Single, t space compile period space Is with capital I space that space ok
  space Dan question mark, with big D space Dan dot dot fullstop question mark,
  question mark, with upper case D space Dan question mark, exclamation mark
  with capital D space Dan exclamation mark with upper case D space dan
  exclamation mark all capitals then new line.
- Was that scupper?
- Nope, that was upper.
- Got it.
- double quote double quote double quote closing round bracket, and a new line.
- Did you say trouble?
- Nope, it was double.
- Er, did you just say nosing?
- No, that was closing.
- Sorry, missed that bit.
- It was: double quote double quote double quote closing round bracket, and a
  new line.
- Carry on.
- and a new line.
- Hang on, was that optioned?
- Nope, that was and.
- Carry on.
- then a new line.
- Say that again.
- I said: then a new line.
- Carry on.
- Def space leading underscore spaces starting round bracket, line closing
  parenthesis, colon and then a new line.
- Sorry, what?
- I said: Def space leading underscore spaces starting round bracket, line
  closing parenthesis, colon and then a new line.
- Mhmm.
- So we've got four spaces at the start.
- Sorry, what?
- So we've got four spaces at the start.
- Carry on.
- Line space equal sign space line fullstop rstrip start round bracket, quote
- What kind of quote?
- Double, slash
- What kind of slash?
- Backward slash n double quote close parenthesis, then a new line.
- Aha.
- The next line begins with four spaces.
- Er, did you just say schorr?
- Nope, I said four.
- Got it.
- Return space len open parenthesis, line close round bracket, space dash space
  len open parenthesis, line period lstrip opening round bracket, close round
  bracket, ending round bracket, and then a new line.
- Hang on, was that koeppen?
- Nope, it was open.
- Sorry, missed that bit.
- That was: Return space len open parenthesis, line close round bracket, space
  dash space len open parenthesis, line period lstrip opening round bracket,
  close round bracket, ending round bracket, and then a new line.
- Er, did you just say sue?
- No, I said new.
- Carry on.
- then new line.
- Aha.
- and then a new line.
- Come again?
- and then a new line.
- Can you repeat that?
- That was: and then a new line.
- Yup.
- Then upper case start underscore templates space equal space open curly
  bracket, then a new line.
- Uh, what?
- It went: Then upper case start underscore templates space equal space open
  curly bracket, then a new line.
- Got it.
- The next line begins with four spaces.
- Sorry, what?
- It went: The next line begins with four spaces.
- Yup.
- double quote ok in caps space so space it space begins space with space { oh }
  space { one } dot quote
- What kind of quote?
- A double quote.
- Right, remember to tell me which one.
- Right, yeah, sorry. comma and then a new line.
- You what?
- It went: double quote ok in caps space so space it space begins space with
  space { oh } space { one } dot quote
- What kind of quote?
- A double quote.
- Right, remember to tell me which one.
- Right, yeah, sorry. comma and then a new line.
- Yup.
- So we've got four spaces at the start.
- You what?
- It was: So we've got four spaces at the start.
- You what?
- I said: So we've got four spaces at the start.
- Carry on.
- quote
- What kind of quote?
- A double quote.
- Right, remember to tell me which one.
- Right, yeah, sorry. The with upper case T space next space line space begins
  space with space { oh } space { one } fullstop quote
- What kind of quote?
- A double quote, comma then new line.
- Was that towe?
- Nah, that was oh.
- Mhmm.
- OK so it begins with four spaces.
- You what?
- It went: OK so it begins with four spaces.
- Carry on.
- double quote So with capital S space we single quote ve space got space { oh }
  space { one } space at space the space start dot quote
- What kind of quote?
- Double quote, comma then new line.
- Sorry, what?
- That was: double quote So with capital S space we single quote ve space got
  space { oh } space { one } space at space the space start dot quote
- What kind of quote?
- Double quote, comma then new line.
- Alright.
- So we've got four spaces at the start.
- Sorry, missed that bit.
- So we've got four spaces at the start.
- Can you repeat that?
- So we've got four spaces at the start.
- Hang on, was that timor?
- No, it was four.
- Er, did you just say foxworthy?
- No, that was the.
- Yup.
- quote
- What kind of quote?
- Double, Then with upper case T space { zero } space { one } dot quote